** written by FreeCAD inp file writer for CalculiX,Abaqus meshes
** highest dimension mesh elements only.

** Nodes
*Node, NSET=Nall
1, 5, 19, 35
2, 5, 19, 10
3, 5, -11, 35
4, 5, -11, 10
5, 5, -25, 45
6, 50, -25, 45
7, 50, -25, 50
8, 5, 25, 45
9, 50, 25, 45
10, 50, 25, 50
11, 5, -25, 5e-15
12, 5, 25, -6e-15
13, 0, 19, 35
14, 0, 19, 10
15, 0, -11, 35
16, 0, -11, 10
17, 0, -25, 50
18, 0, 25, 50
19, 0, -25, 5e-15
20, 0, 25, -6e-15
** ... 5367 like lines cut


** Volume elements
*Element, TYPE=C3D10, ELSET=Evolumes
2075, 392, 699, 79, 80, 3621, 2908, 1657, 1658, 2977, 1005
2076, 285, 374, 640, 375, 3622, 3623, 3624, 3625, 1579, 3626
2077, 554, 885, 878, 866, 3627, 3604, 3628, 3629, 3598, 3580
2078, 510, 787, 461, 583, 3630, 3631, 2045, 3633, 3632, 3634
2079, 658, 333, 297, 296, 3635, 1396, 3636, 3637, 1395, 1288
2080, 510, 787, 522, 461, 3630, 3638, 2095, 2045, 3631, 2094
2081, 285, 374, 284, 640, 3622, 3639, 1251, 3624, 3623, 3640
2082, 1, 167, 937, 154, 1099, 3641, 3642, 1085, 2326, 3643
2083, 925, 926, 504, 924, 3644, 3645, 3647, 3648, 3646, 3649
2084, 117, 275, 427, 116, 2998, 3650, 1762, 1044, 2997, 1761
2085, 537, 926, 810, 809, 3651, 3652, 3654, 3655, 3653, 3440
2086, 167, 465, 937, 154, 3656, 3657, 3641, 2326, 1839, 3643
2087, 510, 787, 832, 522, 3630, 3352, 3658, 2095, 3638, 3659
2088, 924, 926, 504, 809, 3646, 3645, 3649, 3660, 3653, 3661
2089, 194, 193, 778, 601, 1129, 3159, 3158, 2460, 2459, 3662
2090, 926, 537, 505, 504, 3651, 2166, 3663, 3645, 2180, 2129
2091, 400, 703, 399, 87, 3664, 3665, 1682, 1680, 2916, 1678
2092, 93, 405, 92, 708, 1696, 1695, 1018, 2929, 3666, 2930
2093, 729, 266, 710, 712, 3048, 2981, 3667, 3668, 2982, 2979
2094, 348, 680, 667, 676, 3669, 2779, 3670, 3671, 2794, 2793
** ... 2594 like lines cut

** Define element set Eall
*ELSET, ELSET=Eall
Evolumes



***********************************************************
** Element sets for materials and FEM element type (solid, shell, beam, fluid)
*ELSET,ELSET=MaterialSolidSolid
Evolumes

***********************************************************
** constraints fixed node sets
** ConstraintFixed
*NSET,NSET=ConstraintFixed
1,
2,
3,
4,
13,
14,
15,
16,
119,
120,
121,
122,
123,
124,
125,
126,
127,
128,
129,
130,
** ... 548 like lines cut

** Physical constants for SI(mm) unit system with Kelvins
*PHYSICAL CONSTANTS, ABSOLUTE ZERO=0, STEFAN BOLTZMANN=5.670374419e-11

***********************************************************
** Materials
** see information about units at file end
** FreeCAD material name: Steel-S420N
** MaterialSolid
*MATERIAL, NAME=MaterialSolid
*ELASTIC
210000,0.3
*EXPANSION, ZERO=0
1.1E-05

***********************************************************
** Sections
*SOLID SECTION, ELSET=MaterialSolidSolid, MATERIAL=MaterialSolid

***********************************************************
** At least one step is needed to run an CalculiX analysis of FreeCAD
*STEP, INC=2000
*STATIC
1.0,1.0,1e-05,1.0

***********************************************************
** Fixed Constraints
** ConstraintFixed
*BOUNDARY
ConstraintFixed,1
ConstraintFixed,2
ConstraintFixed,3


***********************************************************
** constraints force node loads
** ConstraintForce
*CLOAD
** node loads on shape: Pocket:Face5
7,3,-0
10,3,-0
17,3,-0
18,3,-0
66,3,-0
67,3,-0
68,3,-0
69,3,-0
70,3,-0
71,3,-0
72,3,-0
73,3,-0
74,3,-0
75,3,-0
76,3,-0
223,3,-0
224,3,-0
225,3,-0
226,3,-0
227,3,-0
** ... 290 like lines cut



***********************************************************
** Outputs --> frd file
*NODE FILE
U
*EL FILE
S, E
** outputs --> dat file
** reaction forces for Constraint fixed
*NODE PRINT, NSET=ConstraintFixed, TOTALS=ONLY
RF

*OUTPUT, FREQUENCY=1
***********************************************************
*END STEP

***********************************************************
** CalculiX Input file
**   written by    --> FreeCAD 1.1.1
**   written on    --> Wed Jun 10 21:52:39 2026
**   file name     --> bracket.FCStd
**   analysis name --> Analysis
**
**
***********************************************************
**  About units:
**  See ccx manual, ccx does not know about any unit.
**  Golden rule: The user must make sure that the numbers they provide have consistent units.
**  The user is the FreeCAD calculix writer module ;-)
**
**  The unit system which is used at Guido Dhondt's company: mm, N, s, K
**  Since Length and Mass are connected by Force, if Length is mm the Mass is in t to get N
**  The following units are used to write to inp file:
**
**  Length: mm (this includes the mesh geometry)
**  Mass: t
**  TimeSpan: s
**  Temperature: K
**
**  This leads to:
**  Force: N
**  Pressure: N/mm^2 == MPa (Young's Modulus has unit Pressure)
**  Density: t/mm^3
**  Gravity: mm/s^2
**  Thermal conductivity: t*mm/K/s^3 == as W/m/K == kW/mm/K
**  Specific Heat: mm^2/s^2/K = J/kg/K == kJ/t/K
**
